$ Input file for a square axial/shear-disp BC plate
SOL 103
CEND
BEGIN BULK
GRID*                  1               0 0.000000000e+00 0.000000000e+00*       
*        0.000000000e+00               0                               0        
GRID*                 32               0 3.333333333e-03 0.000000000e+00*       
*        0.000000000e+00               0                               0        
GRID*                 63               0 6.666666667e-03 0.000000000e+00*       
*        0.000000000e+00               0                               0        
GRID*                 94               0 1.000000000e-02 0.000000000e+00*       
*        0.000000000e+00               0                               0        
GRID*                125               0 1.333333333e-02 0.000000000e+00*       
*        0.000000000e+00               0                               0        
GRID*                156               0 1.666666667e-02 0.000000000e+00*       
*        0.000000000e+00               0                               0        
GRID*                187               0 2.000000000e-02 0.000000000e+00*       
*        0.000000000e+00               0                               0        
GRID*                218               0 2.333333333e-02 0.000000000e+00*       
*        0.000000000e+00               0                               0        
GRID*                249               0 2.666666667e-02 0.000000000e+00*       
*        0.000000000e+00               0                               0        
GRID*                280               0 3.000000000e-02 0.000000000e+00*       
*        0.000000000e+00               0                               0        
GRID*                311               0 3.333333333e-02 0.000000000e+00*       
*        0.000000000e+00               0                               0        
GRID*                342               0 3.666666667e-02 0.000000000e+00*       
*        0.000000000e+00               0                               0        
GRID*                373               0 4.000000000e-02 0.000000000e+00*       
*        0.000000000e+00               0                               0        
GRID*                404               0 4.333333333e-02 0.000000000e+00*       
*        0.000000000e+00               0                               0        
GRID*                435               0 4.666666667e-02 0.000000000e+00*       
*        0.000000000e+00               0                               0        
GRID*                466               0 5.000000000e-02 0.000000000e+00*       
*        0.000000000e+00               0                               0        
GRID*                497               0 5.333333333e-02 0.000000000e+00*       
*        0.000000000e+00               0                               0        
GRID*                528               0 5.666666667e-02 0.000000000e+00*       
*        0.000000000e+00               0                               0        
GRID*                559               0 6.000000000e-02 0.000000000e+00*       
*        0.000000000e+00               0                               0        
GRID*                590               0 6.333333333e-02 0.000000000e+00*       
*        0.000000000e+00               0                               0        
$ ... 2812 like lines cut
CQUAD4         1       1       1      32      33       2
CQUAD4         2       1      32      63      64      33
CQUAD4         3       1      63      94      95      64
CQUAD4         4       1      94     125     126      95
CQUAD4         5       1     125     156     157     126
CQUAD4         6       1     156     187     188     157
CQUAD4         7       1     187     218     219     188
CQUAD4         8       1     218     249     250     219
CQUAD4         9       1     249     280     281     250
CQUAD4        10       1     280     311     312     281
CQUAD4        11       1     311     342     343     312
CQUAD4        12       1     342     373     374     343
CQUAD4        13       1     373     404     405     374
CQUAD4        14       1     404     435     436     405
CQUAD4        15       1     435     466     467     436
CQUAD4        16       1     466     497     498     467
CQUAD4        17       1     497     528     529     498
CQUAD4        18       1     528     559     560     529
CQUAD4        19       1     559     590     591     560
CQUAD4        20       1     590     621     622     591
$ ... 1330 like lines cut
SPC            1       1    34560.000000
SPC            1       1       10.000000
SPC            1       1       20.000000
SPC            1      32      360.000000
SPC            1      32       1-0.000003
SPC            1      32       20.000003
SPC            1      63      360.000000
SPC            1      63       1-0.000007
SPC            1      63       20.000007
SPC            1      94      360.000000
SPC            1      94       1-0.000010
SPC            1      94       20.000010
SPC            1     125      360.000000
SPC            1     125       1-0.000013
SPC            1     125       20.000013
SPC            1     156      360.000000
SPC            1     156       1-0.000017
SPC            1     156       20.000017
SPC            1     187      360.000000
SPC            1     187       1-0.000020
$ ... 430 like lines cut
MAT1*                 1              0.                              0. *0      
*0                   0.                                                 *1      
*1                   1.              0.              0. 
$ Femap Property  : panel
PSHELL*               1               1           1.E-2               1 *0      
*0                   1.               1 0.8333333333333 
ENDDATA